/*--------------------------------*- C++ -*----------------------------------*\
  =========                 |
  \\      /  F ield         | OpenFOAM: The Open Source CFD Toolbox
   \\    /   O peration     | Website:  https://openfoam.org
    \\  /    A nd           | Version:  10
     \\/     M anipulation  |
\*---------------------------------------------------------------------------*/
FoamFile
{
    format      ascii;
    class       volScalarField;
    location    "0";
    object      k;
}
// * * * * * * * * * * * * * * * * * * * * * * * * * * * * * * * * * * * * * //

dimensions      [0 2 -2 0 0 0 0];

internalField   uniform 0.84375;

boundaryField
{
    inlet
    {
        type            fixedValue;
        value           uniform 0.84375;
    }
    outlet
    {
        type            zeroGradient;
    }
    leftup
    {
        type            kqRWallFunction;
        value           uniform 0.84375;
    }
 /*   leftdown
    {
        type            kqRWallFunction;
        value           uniform 0.84375;
    }*/
       top
    {
        type            zeroGradient;
    }
    symplane
    {
       type            symmetryPlane;//zeroGradient;
    }
    frontAndBack
    {
        type            empty;
    }
}


// ************************************************************************* //
